* NGSPICE file created from tiny_user_project.ext - technology: gf180mcuC

* Black-box entry subcircuit for gf180mcu_fd_sc_mcu7t5v0__fill_2 abstract view
.subckt gf180mcu_fd_sc_mcu7t5v0__fill_2 VDD VSS
.ends

* Black-box entry subcircuit for gf180mcu_fd_sc_mcu7t5v0__fillcap_4 abstract view
.subckt gf180mcu_fd_sc_mcu7t5v0__fillcap_4 VDD VSS
.ends

* Black-box entry subcircuit for gf180mcu_fd_sc_mcu7t5v0__antenna abstract view
.subckt gf180mcu_fd_sc_mcu7t5v0__antenna I VDD VSS
.ends

* Black-box entry subcircuit for gf180mcu_fd_sc_mcu7t5v0__fill_1 abstract view
.subckt gf180mcu_fd_sc_mcu7t5v0__fill_1 VDD VSS
.ends

* Black-box entry subcircuit for gf180mcu_fd_sc_mcu7t5v0__dffq_1 abstract view
.subckt gf180mcu_fd_sc_mcu7t5v0__dffq_1 D CLK Q VDD VSS
.ends

* Black-box entry subcircuit for gf180mcu_fd_sc_mcu7t5v0__mux2_2 abstract view
.subckt gf180mcu_fd_sc_mcu7t5v0__mux2_2 I0 I1 S Z VDD VSS
.ends

* Black-box entry subcircuit for gf180mcu_fd_sc_mcu7t5v0__buf_1 abstract view
.subckt gf180mcu_fd_sc_mcu7t5v0__buf_1 I Z VDD VSS
.ends

* Black-box entry subcircuit for gf180mcu_fd_sc_mcu7t5v0__clkbuf_1 abstract view
.subckt gf180mcu_fd_sc_mcu7t5v0__clkbuf_1 I Z VDD VSS
.ends

* Black-box entry subcircuit for gf180mcu_fd_sc_mcu7t5v0__fillcap_8 abstract view
.subckt gf180mcu_fd_sc_mcu7t5v0__fillcap_8 VDD VSS
.ends

* Black-box entry subcircuit for gf180mcu_fd_sc_mcu7t5v0__oai21_1 abstract view
.subckt gf180mcu_fd_sc_mcu7t5v0__oai21_1 A1 A2 B ZN VDD VSS
.ends

* Black-box entry subcircuit for gf180mcu_fd_sc_mcu7t5v0__nor2_1 abstract view
.subckt gf180mcu_fd_sc_mcu7t5v0__nor2_1 A1 A2 ZN VDD VSS
.ends

* Black-box entry subcircuit for gf180mcu_fd_sc_mcu7t5v0__clkbuf_2 abstract view
.subckt gf180mcu_fd_sc_mcu7t5v0__clkbuf_2 I Z VDD VSS
.ends

* Black-box entry subcircuit for gf180mcu_fd_sc_mcu7t5v0__filltie abstract view
.subckt gf180mcu_fd_sc_mcu7t5v0__filltie VDD VSS
.ends

* Black-box entry subcircuit for gf180mcu_fd_sc_mcu7t5v0__fillcap_16 abstract view
.subckt gf180mcu_fd_sc_mcu7t5v0__fillcap_16 VDD VSS
.ends

* Black-box entry subcircuit for gf180mcu_fd_sc_mcu7t5v0__nand2_1 abstract view
.subckt gf180mcu_fd_sc_mcu7t5v0__nand2_1 A1 A2 ZN VDD VSS
.ends

* Black-box entry subcircuit for gf180mcu_fd_sc_mcu7t5v0__aoi21_1 abstract view
.subckt gf180mcu_fd_sc_mcu7t5v0__aoi21_1 A1 A2 B ZN VDD VSS
.ends

* Black-box entry subcircuit for gf180mcu_fd_sc_mcu7t5v0__aoi22_1 abstract view
.subckt gf180mcu_fd_sc_mcu7t5v0__aoi22_1 A1 A2 B1 B2 ZN VDD VSS
.ends

* Black-box entry subcircuit for gf180mcu_fd_sc_mcu7t5v0__aoi21_2 abstract view
.subckt gf180mcu_fd_sc_mcu7t5v0__aoi21_2 A1 A2 B ZN VDD VSS
.ends

* Black-box entry subcircuit for gf180mcu_fd_sc_mcu7t5v0__dffrnq_1 abstract view
.subckt gf180mcu_fd_sc_mcu7t5v0__dffrnq_1 D RN CLK Q VDD VSS
.ends

* Black-box entry subcircuit for gf180mcu_fd_sc_mcu7t5v0__mux4_1 abstract view
.subckt gf180mcu_fd_sc_mcu7t5v0__mux4_1 I0 I1 I2 I3 S0 S1 Z VDD VSS
.ends

* Black-box entry subcircuit for gf180mcu_fd_sc_mcu7t5v0__xnor2_1 abstract view
.subckt gf180mcu_fd_sc_mcu7t5v0__xnor2_1 A1 A2 ZN VDD VSS
.ends

* Black-box entry subcircuit for gf180mcu_fd_sc_mcu7t5v0__nand3_1 abstract view
.subckt gf180mcu_fd_sc_mcu7t5v0__nand3_1 A1 A2 A3 ZN VDD VSS
.ends

* Black-box entry subcircuit for gf180mcu_fd_sc_mcu7t5v0__fillcap_32 abstract view
.subckt gf180mcu_fd_sc_mcu7t5v0__fillcap_32 VDD VSS
.ends

* Black-box entry subcircuit for gf180mcu_fd_sc_mcu7t5v0__oai22_1 abstract view
.subckt gf180mcu_fd_sc_mcu7t5v0__oai22_1 A1 A2 B1 B2 ZN VDD VSS
.ends

* Black-box entry subcircuit for gf180mcu_fd_sc_mcu7t5v0__clkinv_1 abstract view
.subckt gf180mcu_fd_sc_mcu7t5v0__clkinv_1 I ZN VDD VSS
.ends

* Black-box entry subcircuit for gf180mcu_fd_sc_mcu7t5v0__buf_2 abstract view
.subckt gf180mcu_fd_sc_mcu7t5v0__buf_2 I Z VDD VSS
.ends

* Black-box entry subcircuit for gf180mcu_fd_sc_mcu7t5v0__nand2_2 abstract view
.subckt gf180mcu_fd_sc_mcu7t5v0__nand2_2 A1 A2 ZN VDD VSS
.ends

* Black-box entry subcircuit for gf180mcu_fd_sc_mcu7t5v0__fillcap_64 abstract view
.subckt gf180mcu_fd_sc_mcu7t5v0__fillcap_64 VDD VSS
.ends

* Black-box entry subcircuit for gf180mcu_fd_sc_mcu7t5v0__tiel abstract view
.subckt gf180mcu_fd_sc_mcu7t5v0__tiel ZN VDD VSS
.ends

* Black-box entry subcircuit for gf180mcu_fd_sc_mcu7t5v0__oai211_1 abstract view
.subckt gf180mcu_fd_sc_mcu7t5v0__oai211_1 A1 A2 B C ZN VDD VSS
.ends

* Black-box entry subcircuit for gf180mcu_fd_sc_mcu7t5v0__nand3_2 abstract view
.subckt gf180mcu_fd_sc_mcu7t5v0__nand3_2 A1 A2 A3 ZN VDD VSS
.ends

* Black-box entry subcircuit for gf180mcu_fd_sc_mcu7t5v0__oai221_1 abstract view
.subckt gf180mcu_fd_sc_mcu7t5v0__oai221_1 A1 A2 B1 B2 C ZN VDD VSS
.ends

* Black-box entry subcircuit for gf180mcu_fd_sc_mcu7t5v0__and3_1 abstract view
.subckt gf180mcu_fd_sc_mcu7t5v0__and3_1 A1 A2 A3 Z VDD VSS
.ends

* Black-box entry subcircuit for gf180mcu_fd_sc_mcu7t5v0__xor2_1 abstract view
.subckt gf180mcu_fd_sc_mcu7t5v0__xor2_1 A1 A2 Z VDD VSS
.ends

* Black-box entry subcircuit for gf180mcu_fd_sc_mcu7t5v0__clkinv_2 abstract view
.subckt gf180mcu_fd_sc_mcu7t5v0__clkinv_2 I ZN VDD VSS
.ends

* Black-box entry subcircuit for gf180mcu_fd_sc_mcu7t5v0__clkbuf_4 abstract view
.subckt gf180mcu_fd_sc_mcu7t5v0__clkbuf_4 I Z VDD VSS
.ends

* Black-box entry subcircuit for gf180mcu_fd_sc_mcu7t5v0__endcap abstract view
.subckt gf180mcu_fd_sc_mcu7t5v0__endcap VDD VSS
.ends

* Black-box entry subcircuit for gf180mcu_fd_sc_mcu7t5v0__xor3_1 abstract view
.subckt gf180mcu_fd_sc_mcu7t5v0__xor3_1 A1 A2 A3 Z VDD VSS
.ends

* Black-box entry subcircuit for gf180mcu_fd_sc_mcu7t5v0__and2_1 abstract view
.subckt gf180mcu_fd_sc_mcu7t5v0__and2_1 A1 A2 Z VDD VSS
.ends

* Black-box entry subcircuit for gf180mcu_fd_sc_mcu7t5v0__aoi221_1 abstract view
.subckt gf180mcu_fd_sc_mcu7t5v0__aoi221_1 A1 A2 B1 B2 C ZN VDD VSS
.ends

* Black-box entry subcircuit for gf180mcu_fd_sc_mcu7t5v0__aoi222_1 abstract view
.subckt gf180mcu_fd_sc_mcu7t5v0__aoi222_1 A1 A2 B1 B2 C1 C2 ZN VDD VSS
.ends

* Black-box entry subcircuit for gf180mcu_fd_sc_mcu7t5v0__or3_1 abstract view
.subckt gf180mcu_fd_sc_mcu7t5v0__or3_1 A1 A2 A3 Z VDD VSS
.ends

* Black-box entry subcircuit for gf180mcu_fd_sc_mcu7t5v0__oai211_4 abstract view
.subckt gf180mcu_fd_sc_mcu7t5v0__oai211_4 A1 A2 B C ZN VDD VSS
.ends

* Black-box entry subcircuit for gf180mcu_fd_sc_mcu7t5v0__inv_1 abstract view
.subckt gf180mcu_fd_sc_mcu7t5v0__inv_1 I ZN VDD VSS
.ends

* Black-box entry subcircuit for gf180mcu_fd_sc_mcu7t5v0__and4_1 abstract view
.subckt gf180mcu_fd_sc_mcu7t5v0__and4_1 A1 A2 A3 A4 Z VDD VSS
.ends

* Black-box entry subcircuit for gf180mcu_fd_sc_mcu7t5v0__oai31_1 abstract view
.subckt gf180mcu_fd_sc_mcu7t5v0__oai31_1 A1 A2 A3 B ZN VDD VSS
.ends

* Black-box entry subcircuit for gf180mcu_fd_sc_mcu7t5v0__aoi22_2 abstract view
.subckt gf180mcu_fd_sc_mcu7t5v0__aoi22_2 A1 A2 B1 B2 ZN VDD VSS
.ends

* Black-box entry subcircuit for gf180mcu_fd_sc_mcu7t5v0__oai211_2 abstract view
.subckt gf180mcu_fd_sc_mcu7t5v0__oai211_2 A1 A2 B C ZN VDD VSS
.ends

* Black-box entry subcircuit for gf180mcu_fd_sc_mcu7t5v0__nand4_1 abstract view
.subckt gf180mcu_fd_sc_mcu7t5v0__nand4_1 A1 A2 A3 A4 ZN VDD VSS
.ends

* Black-box entry subcircuit for gf180mcu_fd_sc_mcu7t5v0__nor3_2 abstract view
.subckt gf180mcu_fd_sc_mcu7t5v0__nor3_2 A1 A2 A3 ZN VDD VSS
.ends

* Black-box entry subcircuit for gf180mcu_fd_sc_mcu7t5v0__aoi221_2 abstract view
.subckt gf180mcu_fd_sc_mcu7t5v0__aoi221_2 A1 A2 B1 B2 C ZN VDD VSS
.ends

* Black-box entry subcircuit for gf180mcu_fd_sc_mcu7t5v0__aoi211_2 abstract view
.subckt gf180mcu_fd_sc_mcu7t5v0__aoi211_2 A1 A2 B C ZN VDD VSS
.ends

* Black-box entry subcircuit for gf180mcu_fd_sc_mcu7t5v0__nor3_1 abstract view
.subckt gf180mcu_fd_sc_mcu7t5v0__nor3_1 A1 A2 A3 ZN VDD VSS
.ends

* Black-box entry subcircuit for gf180mcu_fd_sc_mcu7t5v0__or2_1 abstract view
.subckt gf180mcu_fd_sc_mcu7t5v0__or2_1 A1 A2 Z VDD VSS
.ends

* Black-box entry subcircuit for gf180mcu_fd_sc_mcu7t5v0__aoi211_1 abstract view
.subckt gf180mcu_fd_sc_mcu7t5v0__aoi211_1 A1 A2 B C ZN VDD VSS
.ends

* Black-box entry subcircuit for gf180mcu_fd_sc_mcu7t5v0__oai32_1 abstract view
.subckt gf180mcu_fd_sc_mcu7t5v0__oai32_1 A1 A2 A3 B1 B2 ZN VDD VSS
.ends

* Black-box entry subcircuit for gf180mcu_fd_sc_mcu7t5v0__tieh abstract view
.subckt gf180mcu_fd_sc_mcu7t5v0__tieh Z VDD VSS
.ends

* Black-box entry subcircuit for gf180mcu_fd_sc_mcu7t5v0__oai21_2 abstract view
.subckt gf180mcu_fd_sc_mcu7t5v0__oai21_2 A1 A2 B ZN VDD VSS
.ends

* Black-box entry subcircuit for gf180mcu_fd_sc_mcu7t5v0__oai221_2 abstract view
.subckt gf180mcu_fd_sc_mcu7t5v0__oai221_2 A1 A2 B1 B2 C ZN VDD VSS
.ends

* Black-box entry subcircuit for gf180mcu_fd_sc_mcu7t5v0__nor4_1 abstract view
.subckt gf180mcu_fd_sc_mcu7t5v0__nor4_1 A1 A2 A3 A4 ZN VDD VSS
.ends

* Black-box entry subcircuit for gf180mcu_fd_sc_mcu7t5v0__nand4_2 abstract view
.subckt gf180mcu_fd_sc_mcu7t5v0__nand4_2 A1 A2 A3 A4 ZN VDD VSS
.ends

* Black-box entry subcircuit for gf180mcu_fd_sc_mcu7t5v0__xnor3_1 abstract view
.subckt gf180mcu_fd_sc_mcu7t5v0__xnor3_1 A1 A2 A3 ZN VDD VSS
.ends

* Black-box entry subcircuit for gf180mcu_fd_sc_mcu7t5v0__nor4_4 abstract view
.subckt gf180mcu_fd_sc_mcu7t5v0__nor4_4 A1 A2 A3 A4 ZN VDD VSS
.ends

* Black-box entry subcircuit for gf180mcu_fd_sc_mcu7t5v0__buf_20 abstract view
.subckt gf180mcu_fd_sc_mcu7t5v0__buf_20 I Z VDD VSS
.ends

* Black-box entry subcircuit for gf180mcu_fd_sc_mcu7t5v0__oai222_1 abstract view
.subckt gf180mcu_fd_sc_mcu7t5v0__oai222_1 A1 A2 B1 B2 C1 C2 ZN VDD VSS
.ends

* Black-box entry subcircuit for gf180mcu_fd_sc_mcu7t5v0__aoi221_4 abstract view
.subckt gf180mcu_fd_sc_mcu7t5v0__aoi221_4 A1 A2 B1 B2 C ZN VDD VSS
.ends

* Black-box entry subcircuit for gf180mcu_fd_sc_mcu7t5v0__aoi211_4 abstract view
.subckt gf180mcu_fd_sc_mcu7t5v0__aoi211_4 A1 A2 B C ZN VDD VSS
.ends

* Black-box entry subcircuit for gf180mcu_fd_sc_mcu7t5v0__nor4_2 abstract view
.subckt gf180mcu_fd_sc_mcu7t5v0__nor4_2 A1 A2 A3 A4 ZN VDD VSS
.ends

* Black-box entry subcircuit for gf180mcu_fd_sc_mcu7t5v0__nor2_2 abstract view
.subckt gf180mcu_fd_sc_mcu7t5v0__nor2_2 A1 A2 ZN VDD VSS
.ends

* Black-box entry subcircuit for gf180mcu_fd_sc_mcu7t5v0__oai222_4 abstract view
.subckt gf180mcu_fd_sc_mcu7t5v0__oai222_4 A1 A2 B1 B2 C1 C2 ZN VDD VSS
.ends

* Black-box entry subcircuit for gf180mcu_fd_sc_mcu7t5v0__oai22_2 abstract view
.subckt gf180mcu_fd_sc_mcu7t5v0__oai22_2 A1 A2 B1 B2 ZN VDD VSS
.ends

* Black-box entry subcircuit for gf180mcu_fd_sc_mcu7t5v0__oai32_2 abstract view
.subckt gf180mcu_fd_sc_mcu7t5v0__oai32_2 A1 A2 A3 B1 B2 ZN VDD VSS
.ends

* Black-box entry subcircuit for gf180mcu_fd_sc_mcu7t5v0__aoi22_4 abstract view
.subckt gf180mcu_fd_sc_mcu7t5v0__aoi22_4 A1 A2 B1 B2 ZN VDD VSS
.ends

* Black-box entry subcircuit for gf180mcu_fd_sc_mcu7t5v0__dffrnq_2 abstract view
.subckt gf180mcu_fd_sc_mcu7t5v0__dffrnq_2 D RN CLK Q VDD VSS
.ends

* Black-box entry subcircuit for gf180mcu_fd_sc_mcu7t5v0__oai33_1 abstract view
.subckt gf180mcu_fd_sc_mcu7t5v0__oai33_1 A1 A2 A3 B1 B2 B3 ZN VDD VSS
.ends

* Black-box entry subcircuit for gf180mcu_fd_sc_mcu7t5v0__oai221_4 abstract view
.subckt gf180mcu_fd_sc_mcu7t5v0__oai221_4 A1 A2 B1 B2 C ZN VDD VSS
.ends

.subckt tiny_user_project io_in[0] io_in[10] io_in[11] io_in[12] io_in[13] io_in[14]
+ io_in[15] io_in[16] io_in[17] io_in[18] io_in[19] io_in[1] io_in[20] io_in[21] io_in[22]
+ io_in[23] io_in[24] io_in[25] io_in[26] io_in[27] io_in[28] io_in[29] io_in[2] io_in[30]
+ io_in[31] io_in[32] io_in[33] io_in[34] io_in[35] io_in[36] io_in[37] io_in[3] io_in[4]
+ io_in[5] io_in[6] io_in[7] io_in[8] io_in[9] io_oeb[0] io_oeb[10] io_oeb[11] io_oeb[12]
+ io_oeb[13] io_oeb[14] io_oeb[15] io_oeb[16] io_oeb[17] io_oeb[18] io_oeb[19] io_oeb[1]
+ io_oeb[20] io_oeb[21] io_oeb[22] io_oeb[23] io_oeb[24] io_oeb[25] io_oeb[26] io_oeb[27]
+ io_oeb[28] io_oeb[29] io_oeb[2] io_oeb[30] io_oeb[31] io_oeb[32] io_oeb[33] io_oeb[34]
+ io_oeb[35] io_oeb[36] io_oeb[37] io_oeb[3] io_oeb[4] io_oeb[5] io_oeb[6] io_oeb[7]
+ io_oeb[8] io_oeb[9] io_out[0] io_out[10] io_out[11] io_out[12] io_out[13] io_out[14]
+ io_out[15] io_out[16] io_out[17] io_out[18] io_out[19] io_out[1] io_out[20] io_out[21]
+ io_out[22] io_out[23] io_out[24] io_out[25] io_out[26] io_out[27] io_out[28] io_out[29]
+ io_out[2] io_out[30] io_out[31] io_out[32] io_out[33] io_out[34] io_out[35] io_out[36]
+ io_out[37] io_out[3] io_out[4] io_out[5] io_out[6] io_out[7] io_out[8] io_out[9]
+ la_data_in[0] la_data_in[10] la_data_in[11] la_data_in[12] la_data_in[13] la_data_in[14]
+ la_data_in[15] la_data_in[16] la_data_in[17] la_data_in[18] la_data_in[19] la_data_in[1]
+ la_data_in[20] la_data_in[21] la_data_in[22] la_data_in[23] la_data_in[24] la_data_in[25]
+ la_data_in[26] la_data_in[27] la_data_in[28] la_data_in[29] la_data_in[2] la_data_in[30]
+ la_data_in[31] la_data_in[32] la_data_in[33] la_data_in[34] la_data_in[35] la_data_in[36]
+ la_data_in[37] la_data_in[38] la_data_in[39] la_data_in[3] la_data_in[40] la_data_in[41]
+ la_data_in[42] la_data_in[43] la_data_in[44] la_data_in[45] la_data_in[46] la_data_in[47]
+ la_data_in[48] la_data_in[49] la_data_in[4] la_data_in[50] la_data_in[51] la_data_in[52]
+ la_data_in[53] la_data_in[54] la_data_in[55] la_data_in[56] la_data_in[57] la_data_in[58]
+ la_data_in[59] la_data_in[5] la_data_in[60] la_data_in[61] la_data_in[62] la_data_in[63]
+ la_data_in[6] la_data_in[7] la_data_in[8] la_data_in[9] la_data_out[0] la_data_out[10]
+ la_data_out[11] la_data_out[12] la_data_out[13] la_data_out[14] la_data_out[15]
+ la_data_out[16] la_data_out[17] la_data_out[18] la_data_out[19] la_data_out[1] la_data_out[20]
+ la_data_out[21] la_data_out[22] la_data_out[23] la_data_out[24] la_data_out[25]
+ la_data_out[26] la_data_out[27] la_data_out[28] la_data_out[29] la_data_out[2] la_data_out[30]
+ la_data_out[31] la_data_out[32] la_data_out[33] la_data_out[34] la_data_out[35]
+ la_data_out[36] la_data_out[37] la_data_out[38] la_data_out[39] la_data_out[3] la_data_out[40]
+ la_data_out[41] la_data_out[42] la_data_out[43] la_data_out[44] la_data_out[45]
+ la_data_out[46] la_data_out[47] la_data_out[48] la_data_out[49] la_data_out[4] la_data_out[50]
+ la_data_out[51] la_data_out[52] la_data_out[53] la_data_out[54] la_data_out[55]
+ la_data_out[56] la_data_out[57] la_data_out[58] la_data_out[59] la_data_out[5] la_data_out[60]
+ la_data_out[61] la_data_out[62] la_data_out[63] la_data_out[6] la_data_out[7] la_data_out[8]
+ la_data_out[9] la_oenb[0] la_oenb[10] la_oenb[11] la_oenb[12] la_oenb[13] la_oenb[14]
+ la_oenb[15] la_oenb[16] la_oenb[17] la_oenb[18] la_oenb[19] la_oenb[1] la_oenb[20]
+ la_oenb[21] la_oenb[22] la_oenb[23] la_oenb[24] la_oenb[25] la_oenb[26] la_oenb[27]
+ la_oenb[28] la_oenb[29] la_oenb[2] la_oenb[30] la_oenb[31] la_oenb[32] la_oenb[33]
+ la_oenb[34] la_oenb[35] la_oenb[36] la_oenb[37] la_oenb[38] la_oenb[39] la_oenb[3]
+ la_oenb[40] la_oenb[41] la_oenb[42] la_oenb[43] la_oenb[44] la_oenb[45] la_oenb[46]
+ la_oenb[47] la_oenb[48] la_oenb[49] la_oenb[4] la_oenb[50] la_oenb[51] la_oenb[52]
+ la_oenb[53] la_oenb[54] la_oenb[55] la_oenb[56] la_oenb[57] la_oenb[58] la_oenb[59]
+ la_oenb[5] la_oenb[60] la_oenb[61] la_oenb[62] la_oenb[63] la_oenb[6] la_oenb[7]
+ la_oenb[8] la_oenb[9] user_clock2 user_irq[0] user_irq[1] user_irq[2] vdd vss wb_clk_i
+ wb_rst_i wbs_ack_o wbs_adr_i[0] wbs_adr_i[10] wbs_adr_i[11] wbs_adr_i[12] wbs_adr_i[13]
+ wbs_adr_i[14] wbs_adr_i[15] wbs_adr_i[16] wbs_adr_i[17] wbs_adr_i[18] wbs_adr_i[19]
+ wbs_adr_i[1] wbs_adr_i[20] wbs_adr_i[21] wbs_adr_i[22] wbs_adr_i[23] wbs_adr_i[24]
+ wbs_adr_i[25] wbs_adr_i[26] wbs_adr_i[27] wbs_adr_i[28] wbs_adr_i[29] wbs_adr_i[2]
+ wbs_adr_i[30] wbs_adr_i[31] wbs_adr_i[3] wbs_adr_i[4] wbs_adr_i[5] wbs_adr_i[6]
+ wbs_adr_i[7] wbs_adr_i[8] wbs_adr_i[9] wbs_cyc_i wbs_dat_i[0] wbs_dat_i[10] wbs_dat_i[11]
+ wbs_dat_i[12] wbs_dat_i[13] wbs_dat_i[14] wbs_dat_i[15] wbs_dat_i[16] wbs_dat_i[17]
+ wbs_dat_i[18] wbs_dat_i[19] wbs_dat_i[1] wbs_dat_i[20] wbs_dat_i[21] wbs_dat_i[22]
+ wbs_dat_i[23] wbs_dat_i[24] wbs_dat_i[25] wbs_dat_i[26] wbs_dat_i[27] wbs_dat_i[28]
+ wbs_dat_i[29] wbs_dat_i[2] wbs_dat_i[30] wbs_dat_i[31] wbs_dat_i[3] wbs_dat_i[4]
+ wbs_dat_i[5] wbs_dat_i[6] wbs_dat_i[7] wbs_dat_i[8] wbs_dat_i[9] wbs_dat_o[0] wbs_dat_o[10]
+ wbs_dat_o[11] wbs_dat_o[12] wbs_dat_o[13] wbs_dat_o[14] wbs_dat_o[15] wbs_dat_o[16]
+ wbs_dat_o[17] wbs_dat_o[18] wbs_dat_o[19] wbs_dat_o[1] wbs_dat_o[20] wbs_dat_o[21]
+ wbs_dat_o[22] wbs_dat_o[23] wbs_dat_o[24] wbs_dat_o[25] wbs_dat_o[26] wbs_dat_o[27]
+ wbs_dat_o[28] wbs_dat_o[29] wbs_dat_o[2] wbs_dat_o[30] wbs_dat_o[31] wbs_dat_o[3]
+ wbs_dat_o[4] wbs_dat_o[5] wbs_dat_o[6] wbs_dat_o[7] wbs_dat_o[8] wbs_dat_o[9] wbs_sel_i[0]
+ wbs_sel_i[1] wbs_sel_i[2] wbs_sel_i[3] wbs_stb_i wbs_we_i
XFILLER_39_211 vdd vss gf180mcu_fd_sc_mcu7t5v0__fill_2
XFILLER_39_222 vdd vss gf180mcu_fd_sc_mcu7t5v0__fillcap_4
XFILLER_67_542 vdd vss gf180mcu_fd_sc_mcu7t5v0__fill_2
XANTENNA__8507__CLK net1 vdd vss gf180mcu_fd_sc_mcu7t5v0__antenna
XANTENNA__7257__I1 _3312_ vdd vss gf180mcu_fd_sc_mcu7t5v0__antenna
XFILLER_55_704 vdd vss gf180mcu_fd_sc_mcu7t5v0__fill_2
XFILLER_55_715 vdd vss gf180mcu_fd_sc_mcu7t5v0__fill_2
XFILLER_39_277 vdd vss gf180mcu_fd_sc_mcu7t5v0__fillcap_4
XFILLER_54_203 vdd vss gf180mcu_fd_sc_mcu7t5v0__fillcap_4
XFILLER_27_428 vdd vss gf180mcu_fd_sc_mcu7t5v0__fill_1
XFILLER_54_214 vdd vss gf180mcu_fd_sc_mcu7t5v0__fill_1
X_7963_ _0189_ net1 mod.Data_Mem.F_M.MRAM\[779\]\[5\] vdd vss gf180mcu_fd_sc_mcu7t5v0__dffq_1
XFILLER_82_534 vdd vss gf180mcu_fd_sc_mcu7t5v0__fill_2
XFILLER_82_545 vdd vss gf180mcu_fd_sc_mcu7t5v0__fill_1
XFILLER_54_247 vdd vss gf180mcu_fd_sc_mcu7t5v0__fill_1
XANTENNA__7009__I1 mod.Data_Mem.F_M.MRAM\[17\]\[7\] vdd vss gf180mcu_fd_sc_mcu7t5v0__antenna
XFILLER_70_707 vdd vss gf180mcu_fd_sc_mcu7t5v0__fillcap_4
X_6914_ _3253_ mod.Data_Mem.F_M.MRAM\[13\]\[5\] _3381_ _3383_ vdd vss gf180mcu_fd_sc_mcu7t5v0__mux2_2
XFILLER_36_973 vdd vss gf180mcu_fd_sc_mcu7t5v0__fill_1
XFILLER_54_269 vdd vss gf180mcu_fd_sc_mcu7t5v0__fill_2
X_7894_ _0120_ net1 mod.Data_Mem.F_M.MRAM\[27\]\[0\] vdd vss gf180mcu_fd_sc_mcu7t5v0__dffq_1
X_6845_ _3256_ mod.Data_Mem.F_M.MRAM\[769\]\[6\] _3340_ _3345_ vdd vss gf180mcu_fd_sc_mcu7t5v0__mux2_2
XFILLER_50_420 vdd vss gf180mcu_fd_sc_mcu7t5v0__fill_2
XFILLER_62_280 vdd vss gf180mcu_fd_sc_mcu7t5v0__fill_2
XFILLER_22_122 vdd vss gf180mcu_fd_sc_mcu7t5v0__fill_2
XFILLER_51_965 vdd vss gf180mcu_fd_sc_mcu7t5v0__fillcap_4
XFILLER_23_678 vdd vss gf180mcu_fd_sc_mcu7t5v0__fill_2
X_6776_ _3297_ _3298_ vdd vss gf180mcu_fd_sc_mcu7t5v0__buf_1
XFILLER_23_689 vdd vss gf180mcu_fd_sc_mcu7t5v0__fill_2
X_3988_ _0664_ _0665_ vdd vss gf180mcu_fd_sc_mcu7t5v0__clkbuf_1
XFILLER_22_188 vdd vss gf180mcu_fd_sc_mcu7t5v0__fill_1
XFILLER_10_328 vdd vss gf180mcu_fd_sc_mcu7t5v0__fill_2
X_8515_ _0019_ net1 mod.Data_Mem.F_M.out_data\[59\] vdd vss gf180mcu_fd_sc_mcu7t5v0__dffq_1
X_5727_ _2209_ _2352_ vdd vss gf180mcu_fd_sc_mcu7t5v0__clkbuf_1
XFILLER_109_706 vdd vss gf180mcu_fd_sc_mcu7t5v0__fillcap_4
XANTENNA__7256__I _3584_ vdd vss gf180mcu_fd_sc_mcu7t5v0__antenna
XFILLER_109_728 vdd vss gf180mcu_fd_sc_mcu7t5v0__fillcap_8
X_8446_ _0542_ net1 mod.Data_Mem.F_M.MRAM\[793\]\[6\] vdd vss gf180mcu_fd_sc_mcu7t5v0__dffq_1
X_5658_ _2288_ mod.Data_Mem.F_M.MRAM\[796\]\[2\] _2268_ _2289_ vdd vss gf180mcu_fd_sc_mcu7t5v0__oai21_1
XFILLER_11_1020 vdd vss gf180mcu_fd_sc_mcu7t5v0__fillcap_4
X_4609_ _1201_ _1257_ _1280_ vdd vss gf180mcu_fd_sc_mcu7t5v0__nor2_1
X_8377_ _0473_ net1 mod.Data_Mem.F_M.MRAM\[784\]\[1\] vdd vss gf180mcu_fd_sc_mcu7t5v0__dffq_1
X_5589_ _1549_ _2226_ vdd vss gf180mcu_fd_sc_mcu7t5v0__clkbuf_2
XANTENNA__5743__I1 mod.Data_Mem.F_M.MRAM\[3\]\[0\] vdd vss gf180mcu_fd_sc_mcu7t5v0__antenna
XANTENNA__8037__CLK net1 vdd vss gf180mcu_fd_sc_mcu7t5v0__antenna
XFILLER_117_783 vdd vss gf180mcu_fd_sc_mcu7t5v0__fill_2
XFILLER_116_260 vdd vss gf180mcu_fd_sc_mcu7t5v0__fill_1
X_7328_ _3297_ _3634_ vdd vss gf180mcu_fd_sc_mcu7t5v0__clkbuf_1
XFILLER_2_527 vdd vss gf180mcu_fd_sc_mcu7t5v0__fillcap_4
XFILLER_89_100 vdd vss gf180mcu_fd_sc_mcu7t5v0__fill_1
XFILLER_116_271 vdd vss gf180mcu_fd_sc_mcu7t5v0__fillcap_4
XANTENNA__5932__C _2552_ vdd vss gf180mcu_fd_sc_mcu7t5v0__antenna
XFILLER_89_133 vdd vss gf180mcu_fd_sc_mcu7t5v0__fill_2
XFILLER_104_433 vdd vss gf180mcu_fd_sc_mcu7t5v0__fill_2
XANTENNA__8126__RN net2 vdd vss gf180mcu_fd_sc_mcu7t5v0__antenna
XFILLER_78_818 vdd vss gf180mcu_fd_sc_mcu7t5v0__fill_1
XFILLER_89_144 vdd vss gf180mcu_fd_sc_mcu7t5v0__fillcap_4
XANTENNA__6299__I2 _2908_ vdd vss gf180mcu_fd_sc_mcu7t5v0__antenna
X_7259_ mod.Data_Mem.F_M.MRAM\[31\]\[5\] _3316_ _3590_ _3592_ vdd vss gf180mcu_fd_sc_mcu7t5v0__mux2_2
XFILLER_105_989 vdd vss gf180mcu_fd_sc_mcu7t5v0__fillcap_4
XFILLER_77_339 vdd vss gf180mcu_fd_sc_mcu7t5v0__fill_2
XFILLER_89_199 vdd vss gf180mcu_fd_sc_mcu7t5v0__fill_2
XANTENNA__8187__CLK net1 vdd vss gf180mcu_fd_sc_mcu7t5v0__antenna
XFILLER_58_531 vdd vss gf180mcu_fd_sc_mcu7t5v0__fill_1
XFILLER_19_907 vdd vss gf180mcu_fd_sc_mcu7t5v0__fill_2
XANTENNA__7248__I1 _3293_ vdd vss gf180mcu_fd_sc_mcu7t5v0__antenna
XFILLER_46_737 vdd vss gf180mcu_fd_sc_mcu7t5v0__fill_1
XFILLER_73_523 vdd vss gf180mcu_fd_sc_mcu7t5v0__fillcap_4
XANTENNA__5959__A1 _2457_ vdd vss gf180mcu_fd_sc_mcu7t5v0__antenna
XFILLER_45_247 vdd vss gf180mcu_fd_sc_mcu7t5v0__fill_1
XANTENNA__3959__I _0635_ vdd vss gf180mcu_fd_sc_mcu7t5v0__antenna
XFILLER_27_962 vdd vss gf180mcu_fd_sc_mcu7t5v0__fill_2
XFILLER_45_258 vdd vss gf180mcu_fd_sc_mcu7t5v0__fill_1
XFILLER_45_269 vdd vss gf180mcu_fd_sc_mcu7t5v0__fill_2
XTAP_1800 vdd vss gf180mcu_fd_sc_mcu7t5v0__filltie
XFILLER_73_589 vdd vss gf180mcu_fd_sc_mcu7t5v0__fill_2
XTAP_1811 vdd vss gf180mcu_fd_sc_mcu7t5v0__filltie
XFILLER_26_63 vdd vss gf180mcu_fd_sc_mcu7t5v0__fill_1
XFILLER_54_770 vdd vss gf180mcu_fd_sc_mcu7t5v0__fill_2
XTAP_1822 vdd vss gf180mcu_fd_sc_mcu7t5v0__filltie
XFILLER_26_74 vdd vss gf180mcu_fd_sc_mcu7t5v0__fill_2
XFILLER_42_921 vdd vss gf180mcu_fd_sc_mcu7t5v0__fill_2
XFILLER_26_483 vdd vss gf180mcu_fd_sc_mcu7t5v0__fill_2
XTAP_1833 vdd vss gf180mcu_fd_sc_mcu7t5v0__filltie
XTAP_1844 vdd vss gf180mcu_fd_sc_mcu7t5v0__filltie
XTAP_1855 vdd vss gf180mcu_fd_sc_mcu7t5v0__filltie
XTAP_1866 vdd vss gf180mcu_fd_sc_mcu7t5v0__filltie
XANTENNA__3985__A3 mod.Arithmetic.CN.I_in\[64\] vdd vss gf180mcu_fd_sc_mcu7t5v0__antenna
XTAP_1877 vdd vss gf180mcu_fd_sc_mcu7t5v0__filltie
XFILLER_14_667 vdd vss gf180mcu_fd_sc_mcu7t5v0__fillcap_4
XFILLER_13_144 vdd vss gf180mcu_fd_sc_mcu7t5v0__fillcap_16
XTAP_1888 vdd vss gf180mcu_fd_sc_mcu7t5v0__filltie
XTAP_1899 vdd vss gf180mcu_fd_sc_mcu7t5v0__filltie
XANTENNA__6384__A1 _2134_ vdd vss gf180mcu_fd_sc_mcu7t5v0__antenna
XANTENNA__5187__A2 mod.Data_Mem.F_M.MRAM\[771\]\[3\] vdd vss gf180mcu_fd_sc_mcu7t5v0__antenna
XANTENNA__6384__B2 _2216_ vdd vss gf180mcu_fd_sc_mcu7t5v0__antenna
XFILLER_9_137 vdd vss gf180mcu_fd_sc_mcu7t5v0__fillcap_4
XFILLER_127_503 vdd vss gf180mcu_fd_sc_mcu7t5v0__fill_1
XFILLER_6_811 vdd vss gf180mcu_fd_sc_mcu7t5v0__fillcap_4
XANTENNA__6070__I _2686_ vdd vss gf180mcu_fd_sc_mcu7t5v0__antenna
XFILLER_127_536 vdd vss gf180mcu_fd_sc_mcu7t5v0__fill_2
XFILLER_115_709 vdd vss gf180mcu_fd_sc_mcu7t5v0__fill_1
XFILLER_5_354 vdd vss gf180mcu_fd_sc_mcu7t5v0__fill_1
XANTENNA__5734__I1 mod.Data_Mem.F_M.MRAM\[15\]\[0\] vdd vss gf180mcu_fd_sc_mcu7t5v0__antenna
XFILLER_108_772 vdd vss gf180mcu_fd_sc_mcu7t5v0__fill_2
XANTENNA__4698__A1 _0620_ vdd vss gf180mcu_fd_sc_mcu7t5v0__antenna
XANTENNA__8117__RN net2 vdd vss gf180mcu_fd_sc_mcu7t5v0__antenna
XANTENNA__7487__I1 mod.Data_Mem.F_M.MRAM\[781\]\[0\] vdd vss gf180mcu_fd_sc_mcu7t5v0__antenna
XANTENNA__5414__I _1725_ vdd vss gf180mcu_fd_sc_mcu7t5v0__antenna
XFILLER_110_414 vdd vss gf180mcu_fd_sc_mcu7t5v0__fillcap_8
XFILLER_96_637 vdd vss gf180mcu_fd_sc_mcu7t5v0__fill_1
XFILLER_49_520 vdd vss gf180mcu_fd_sc_mcu7t5v0__fill_1
XFILLER_96_648 vdd vss gf180mcu_fd_sc_mcu7t5v0__fillcap_4
XFILLER_96_659 vdd vss gf180mcu_fd_sc_mcu7t5v0__fill_2
XFILLER_49_531 vdd vss gf180mcu_fd_sc_mcu7t5v0__fillcap_4
XFILLER_95_147 vdd vss gf180mcu_fd_sc_mcu7t5v0__fill_2
XFILLER_49_553 vdd vss gf180mcu_fd_sc_mcu7t5v0__fillcap_4
XFILLER_67_70 vdd vss gf180mcu_fd_sc_mcu7t5v0__fill_1
XFILLER_37_715 vdd vss gf180mcu_fd_sc_mcu7t5v0__fill_2
XFILLER_76_361 vdd vss gf180mcu_fd_sc_mcu7t5v0__fill_2
XFILLER_76_383 vdd vss gf180mcu_fd_sc_mcu7t5v0__fillcap_4
XFILLER_64_534 vdd vss gf180mcu_fd_sc_mcu7t5v0__fillcap_4
XFILLER_91_320 vdd vss gf180mcu_fd_sc_mcu7t5v0__fill_2
XFILLER_36_247 vdd vss gf180mcu_fd_sc_mcu7t5v0__fill_1
XFILLER_36_258 vdd vss gf180mcu_fd_sc_mcu7t5v0__fill_2
XFILLER_36_269 vdd vss gf180mcu_fd_sc_mcu7t5v0__fill_1
X_4960_ _1625_ _1628_ _1629_ vdd vss gf180mcu_fd_sc_mcu7t5v0__nand2_1
XFILLER_17_461 vdd vss gf180mcu_fd_sc_mcu7t5v0__fill_2
XFILLER_91_375 vdd vss gf180mcu_fd_sc_mcu7t5v0__fill_2
XFILLER_45_792 vdd vss gf180mcu_fd_sc_mcu7t5v0__fill_2
XFILLER_83_80 vdd vss gf180mcu_fd_sc_mcu7t5v0__fill_2
XFILLER_32_420 vdd vss gf180mcu_fd_sc_mcu7t5v0__fill_2
XFILLER_33_954 vdd vss gf180mcu_fd_sc_mcu7t5v0__fillcap_4
XFILLER_60_740 vdd vss gf180mcu_fd_sc_mcu7t5v0__fill_2
X_4891_ _1547_ _1552_ _1559_ _1560_ vdd vss gf180mcu_fd_sc_mcu7t5v0__aoi21_1
X_6630_ _3205_ _0106_ vdd vss gf180mcu_fd_sc_mcu7t5v0__clkbuf_1
XANTENNA__6375__A1 _2779_ vdd vss gf180mcu_fd_sc_mcu7t5v0__antenna
XFILLER_34_1031 vdd vss gf180mcu_fd_sc_mcu7t5v0__fill_1
XFILLER_80_2 vdd vss gf180mcu_fd_sc_mcu7t5v0__fill_1
X_6561_ mod.Data_Mem.F_M.MRAM\[781\]\[7\] _2596_ _3023_ mod.Data_Mem.F_M.MRAM\[769\]\[7\]
+ _3163_ vdd vss gf180mcu_fd_sc_mcu7t5v0__aoi22_1
XFILLER_34_1042 vdd vss gf180mcu_fd_sc_mcu7t5v0__fill_2
X_8300_ _0396_ net1 mod.Data_Mem.F_M.MRAM\[773\]\[4\] vdd vss gf180mcu_fd_sc_mcu7t5v0__dffq_1
X_5512_ _2151_ mod.Data_Mem.F_M.MRAM\[30\]\[7\] _2153_ _2154_ vdd vss gf180mcu_fd_sc_mcu7t5v0__aoi21_2
XANTENNA__6127__A1 _1726_ vdd vss gf180mcu_fd_sc_mcu7t5v0__antenna
X_6492_ _2511_ mod.Data_Mem.F_M.MRAM\[0\]\[4\] _2103_ _3097_ vdd vss gf180mcu_fd_sc_mcu7t5v0__oai21_1
X_8231_ mod.P1.instr_reg\[17\] net2 net1 mod.P2.dest_reg1\[8\] vdd vss gf180mcu_fd_sc_mcu7t5v0__dffrnq_1
X_5443_ _1548_ _2092_ vdd vss gf180mcu_fd_sc_mcu7t5v0__clkbuf_1
X_8162_ mod.Data_Mem.F_M.out_data\[72\] net2 net1 mod.Arithmetic.I_out\[72\] vdd vss
+ gf180mcu_fd_sc_mcu7t5v0__dffrnq_1
XANTENNA__4153__A3 mod.Arithmetic.CN.I_in\[33\] vdd vss gf180mcu_fd_sc_mcu7t5v0__antenna
X_5374_ _2032_ _2033_ _2034_ _2035_ _1844_ _1642_ _2036_ vdd vss gf180mcu_fd_sc_mcu7t5v0__mux4_1
XFILLER_99_420 vdd vss gf180mcu_fd_sc_mcu7t5v0__fillcap_4
X_7113_ _3504_ _0290_ vdd vss gf180mcu_fd_sc_mcu7t5v0__clkbuf_1
XFILLER_114_753 vdd vss gf180mcu_fd_sc_mcu7t5v0__fill_2
XFILLER_113_241 vdd vss gf180mcu_fd_sc_mcu7t5v0__fill_2
XANTENNA__7478__I1 mod.Data_Mem.F_M.MRAM\[780\]\[5\] vdd vss gf180mcu_fd_sc_mcu7t5v0__antenna
XANTENNA__8108__RN net2 vdd vss gf180mcu_fd_sc_mcu7t5v0__antenna
X_4325_ _0994_ _0998_ _0999_ vdd vss gf180mcu_fd_sc_mcu7t5v0__xnor2_1
X_8093_ mod.Data_Mem.F_M.out_data\[3\] net2 net1 mod.Arithmetic.ACTI.x\[3\] vdd vss
+ gf180mcu_fd_sc_mcu7t5v0__dffrnq_1
XFILLER_59_317 vdd vss gf180mcu_fd_sc_mcu7t5v0__fill_2
X_7044_ _3468_ _0257_ vdd vss gf180mcu_fd_sc_mcu7t5v0__clkbuf_1
XFILLER_101_425 vdd vss gf180mcu_fd_sc_mcu7t5v0__fill_1
X_4256_ _0621_ _0930_ _0658_ _0931_ vdd vss gf180mcu_fd_sc_mcu7t5v0__nand3_1
XFILLER_67_350 vdd vss gf180mcu_fd_sc_mcu7t5v0__fill_2
X_4187_ _0802_ _0818_ _0862_ vdd vss gf180mcu_fd_sc_mcu7t5v0__nand2_1
XFILLER_68_884 vdd vss gf180mcu_fd_sc_mcu7t5v0__fill_2
XFILLER_27_203 vdd vss gf180mcu_fd_sc_mcu7t5v0__fill_2
XFILLER_67_372 vdd vss gf180mcu_fd_sc_mcu7t5v0__fill_2
XFILLER_28_737 vdd vss gf180mcu_fd_sc_mcu7t5v0__fill_1
XFILLER_67_394 vdd vss gf180mcu_fd_sc_mcu7t5v0__fill_2
XFILLER_83_843 vdd vss gf180mcu_fd_sc_mcu7t5v0__fill_2
XANTENNA__6989__I0 _3405_ vdd vss gf180mcu_fd_sc_mcu7t5v0__antenna
XFILLER_55_545 vdd vss gf180mcu_fd_sc_mcu7t5v0__fill_1
XFILLER_83_854 vdd vss gf180mcu_fd_sc_mcu7t5v0__fill_1
XFILLER_55_556 vdd vss gf180mcu_fd_sc_mcu7t5v0__fill_2
XANTENNA__6063__B1 _2680_ vdd vss gf180mcu_fd_sc_mcu7t5v0__antenna
XFILLER_43_718 vdd vss gf180mcu_fd_sc_mcu7t5v0__fill_2
XTAP_1107 vdd vss gf180mcu_fd_sc_mcu7t5v0__filltie
X_7946_ _0172_ net1 mod.Data_Mem.F_M.MRAM\[789\]\[4\] vdd vss gf180mcu_fd_sc_mcu7t5v0__dffq_1
XTAP_1118 vdd vss gf180mcu_fd_sc_mcu7t5v0__filltie
XFILLER_42_228 vdd vss gf180mcu_fd_sc_mcu7t5v0__fillcap_4
XTAP_1129 vdd vss gf180mcu_fd_sc_mcu7t5v0__filltie
XFILLER_63_39 vdd vss gf180mcu_fd_sc_mcu7t5v0__fill_2
XFILLER_70_537 vdd vss gf180mcu_fd_sc_mcu7t5v0__fillcap_4
XFILLER_23_420 vdd vss gf180mcu_fd_sc_mcu7t5v0__fill_2
X_7877_ _0103_ net1 mod.Data_Mem.F_M.MRAM\[24\]\[7\] vdd vss gf180mcu_fd_sc_mcu7t5v0__dffq_1
XFILLER_23_442 vdd vss gf180mcu_fd_sc_mcu7t5v0__fill_2
XFILLER_24_987 vdd vss gf180mcu_fd_sc_mcu7t5v0__fillcap_32
XFILLER_50_250 vdd vss gf180mcu_fd_sc_mcu7t5v0__fill_1
X_6828_ mod.Data_Mem.F_M.dest\[1\] _3333_ _3334_ vdd vss gf180mcu_fd_sc_mcu7t5v0__nor2_1
XANTENNA__6366__A1 _1941_ vdd vss gf180mcu_fd_sc_mcu7t5v0__antenna
XFILLER_23_486 vdd vss gf180mcu_fd_sc_mcu7t5v0__fill_2
XFILLER_50_261 vdd vss gf180mcu_fd_sc_mcu7t5v0__fill_2
XFILLER_10_114 vdd vss gf180mcu_fd_sc_mcu7t5v0__fill_2
X_6759_ _3286_ _0154_ vdd vss gf180mcu_fd_sc_mcu7t5v0__clkbuf_1
XANTENNA__6118__A1 _2373_ vdd vss gf180mcu_fd_sc_mcu7t5v0__antenna
XANTENNA__7166__I0 _3537_ vdd vss gf180mcu_fd_sc_mcu7t5v0__antenna
XFILLER_109_547 vdd vss gf180mcu_fd_sc_mcu7t5v0__fillcap_8
XFILLER_109_558 vdd vss gf180mcu_fd_sc_mcu7t5v0__fill_2
XANTENNA__5943__B _2563_ vdd vss gf180mcu_fd_sc_mcu7t5v0__antenna
X_8429_ _0525_ net1 mod.Data_Mem.F_M.MRAM\[791\]\[5\] vdd vss gf180mcu_fd_sc_mcu7t5v0__dffq_1
XFILLER_3_847 vdd vss gf180mcu_fd_sc_mcu7t5v0__fillcap_4
XFILLER_117_591 vdd vss gf180mcu_fd_sc_mcu7t5v0__fillcap_4
XFILLER_105_753 vdd vss gf180mcu_fd_sc_mcu7t5v0__fill_1
XFILLER_78_626 vdd vss gf180mcu_fd_sc_mcu7t5v0__fill_2
XFILLER_144_42 vdd vss gf180mcu_fd_sc_mcu7t5v0__fillcap_16
XFILLER_77_125 vdd vss gf180mcu_fd_sc_mcu7t5v0__fill_2
XFILLER_77_147 vdd vss gf180mcu_fd_sc_mcu7t5v0__fill_2
XFILLER_59_851 vdd vss gf180mcu_fd_sc_mcu7t5v0__fill_1