*SPEF "ieee 1481-1999"
*DESIGN "user_project_wrapper"
*DATE "11:11:11 Fri 11 11, 1111"
*VENDOR "OpenRCX"
*PROGRAM "Parallel Extraction"
*VERSION "1.0"
*DESIGN_FLOW "NAME_SCOPE LOCAL" "PIN_CAP NONE"
*DIVIDER /
*DELIMITER :
*BUS_DELIMITER []
*T_UNIT 1 NS
*C_UNIT 1 PF
*R_UNIT 1 OHM
*L_UNIT 1 HENRY

*NAME_MAP
*1 io_in[0]
*2 io_in[10]
*3 io_in[11]
*4 io_in[12]
*5 io_in[13]
*6 io_in[14]
*7 io_in[15]
*8 io_in[16]
*9 io_in[17]
*10 io_in[18]
*11 io_in[19]
*12 io_in[1]
*13 io_in[20]
*14 io_in[21]
*15 io_in[22]
*16 io_in[23]
*17 io_in[24]
*18 io_in[25]
*19 io_in[26]
*20 io_in[27]
*21 io_in[28]
*22 io_in[29]
*23 io_in[2]
*24 io_in[30]
*25 io_in[31]
*26 io_in[32]
*27 io_in[33]
*28 io_in[34]
*29 io_in[35]
*30 io_in[36]
*31 io_in[37]
*32 io_in[3]
*33 io_in[4]
*34 io_in[5]
*35 io_in[6]
*36 io_in[7]
*37 io_in[8]
*38 io_in[9]
*39 io_oeb[0]
*40 io_oeb[10]
*41 io_oeb[11]
*42 io_oeb[12]
*43 io_oeb[13]
*44 io_oeb[14]
*45 io_oeb[15]
*46 io_oeb[16]
*47 io_oeb[17]
*48 io_oeb[18]
*49 io_oeb[19]
*50 io_oeb[1]
*51 io_oeb[20]
*52 io_oeb[21]
*53 io_oeb[22]
*54 io_oeb[23]
*55 io_oeb[24]
*56 io_oeb[25]
*57 io_oeb[26]
*58 io_oeb[27]
*59 io_oeb[28]
*60 io_oeb[29]
*61 io_oeb[2]
*62 io_oeb[30]
*63 io_oeb[31]
*64 io_oeb[32]
*65 io_oeb[33]
*66 io_oeb[34]
*67 io_oeb[35]
*68 io_oeb[36]
*69 io_oeb[37]
*70 io_oeb[3]
*71 io_oeb[4]
*72 io_oeb[5]
*73 io_oeb[6]
*74 io_oeb[7]
*75 io_oeb[8]
*76 io_oeb[9]
*77 io_out[0]
*78 io_out[10]
*79 io_out[11]
*80 io_out[12]
*81 io_out[13]
*82 io_out[14]
*83 io_out[15]
*84 io_out[16]
*85 io_out[17]
*86 io_out[18]
*87 io_out[19]
*88 io_out[1]
*89 io_out[20]
*90 io_out[21]
*91 io_out[22]
*92 io_out[23]
*93 io_out[24]
*94 io_out[25]
*95 io_out[26]
*96 io_out[27]
*97 io_out[28]
*98 io_out[29]
*99 io_out[2]
*100 io_out[30]
*101 io_out[31]
*102 io_out[32]
*103 io_out[33]
*104 io_out[34]
*105 io_out[35]
*106 io_out[36]
*107 io_out[37]
*108 io_out[3]
*109 io_out[4]
*110 io_out[5]
*111 io_out[6]
*112 io_out[7]
*113 io_out[8]
*114 io_out[9]
*115 la_data_in[0]
*116 la_data_in[10]
*117 la_data_in[11]
*118 la_data_in[12]
*119 la_data_in[13]
*120 la_data_in[14]
*121 la_data_in[15]
*122 la_data_in[16]
*123 la_data_in[17]
*124 la_data_in[18]
*125 la_data_in[19]
*126 la_data_in[1]
*127 la_data_in[20]
*128 la_data_in[21]
*129 la_data_in[22]
*130 la_data_in[23]
*131 la_data_in[24]
*132 la_data_in[25]
*133 la_data_in[26]
*134 la_data_in[27]
*135 la_data_in[28]
*136 la_data_in[29]
*137 la_data_in[2]
*138 la_data_in[30]
*139 la_data_in[31]
*140 la_data_in[32]
*141 la_data_in[33]
*142 la_data_in[34]
*143 la_data_in[35]
*144 la_data_in[36]
*145 la_data_in[37]
*146 la_data_in[38]
*147 la_data_in[39]
*148 la_data_in[3]
*149 la_data_in[40]
*150 la_data_in[41]
*151 la_data_in[42]
*152 la_data_in[43]
*153 la_data_in[44]
*154 la_data_in[45]
*155 la_data_in[46]
*156 la_data_in[47]
*157 la_data_in[48]
*158 la_data_in[49]
*159 la_data_in[4]
*160 la_data_in[50]
*161 la_data_in[51]
*162 la_data_in[52]
*163 la_data_in[53]
*164 la_data_in[54]
*165 la_data_in[55]
*166 la_data_in[56]
*167 la_data_in[57]
*168 la_data_in[58]
*169 la_data_in[59]
*170 la_data_in[5]
*171 la_data_in[60]
*172 la_data_in[61]
*173 la_data_in[62]
*174 la_data_in[63]
*175 la_data_in[6]
*176 la_data_in[7]
*177 la_data_in[8]
*178 la_data_in[9]
*179 la_data_out[0]
*180 la_data_out[10]
*181 la_data_out[11]
*182 la_data_out[12]
*183 la_data_out[13]
*184 la_data_out[14]
*185 la_data_out[15]
*186 la_data_out[16]
*187 la_data_out[17]
*188 la_data_out[18]
*189 la_data_out[19]
*190 la_data_out[1]
*191 la_data_out[20]
*192 la_data_out[21]
*193 la_data_out[22]
*194 la_data_out[23]
*195 la_data_out[24]
*196 la_data_out[25]
*197 la_data_out[26]
*198 la_data_out[27]
*199 la_data_out[28]
*200 la_data_out[29]
*201 la_data_out[2]
*202 la_data_out[30]
*203 la_data_out[31]
*204 la_data_out[32]
*205 la_data_out[33]
*206 la_data_out[34]
*207 la_data_out[35]
*208 la_data_out[36]
*209 la_data_out[37]
*210 la_data_out[38]
*211 la_data_out[39]
*212 la_data_out[3]
*213 la_data_out[40]
*214 la_data_out[41]
*215 la_data_out[42]
*216 la_data_out[43]
*217 la_data_out[44]
*218 la_data_out[45]
*219 la_data_out[46]
*220 la_data_out[47]
*221 la_data_out[48]
*222 la_data_out[49]
*223 la_data_out[4]
*224 la_data_out[50]
*225 la_data_out[51]
*226 la_data_out[52]
*227 la_data_out[53]
*228 la_data_out[54]
*229 la_data_out[55]
*230 la_data_out[56]
*231 la_data_out[57]
*232 la_data_out[58]
*233 la_data_out[59]
*234 la_data_out[5]
*235 la_data_out[60]
*236 la_data_out[61]
*237 la_data_out[62]
*238 la_data_out[63]
*239 la_data_out[6]
*240 la_data_out[7]
*241 la_data_out[8]
*242 la_data_out[9]
*243 la_oenb[0]
*244 la_oenb[10]
*245 la_oenb[11]
*246 la_oenb[12]
*247 la_oenb[13]
*248 la_oenb[14]
*249 la_oenb[15]
*250 la_oenb[16]
*251 la_oenb[17]
*252 la_oenb[18]
*253 la_oenb[19]
*254 la_oenb[1]
*255 la_oenb[20]
*256 la_oenb[21]
*257 la_oenb[22]
*258 la_oenb[23]
*259 la_oenb[24]
*260 la_oenb[25]
*261 la_oenb[26]
*262 la_oenb[27]
*263 la_oenb[28]
*264 la_oenb[29]
*265 la_oenb[2]
*266 la_oenb[30]
*267 la_oenb[31]
*268 la_oenb[32]
*269 la_oenb[33]
*270 la_oenb[34]
*271 la_oenb[35]
*272 la_oenb[36]
*273 la_oenb[37]
*274 la_oenb[38]
*275 la_oenb[39]
*276 la_oenb[3]
*277 la_oenb[40]
*278 la_oenb[41]
*279 la_oenb[42]
*280 la_oenb[43]
*281 la_oenb[44]
*282 la_oenb[45]
*283 la_oenb[46]
*284 la_oenb[47]
*285 la_oenb[48]
*286 la_oenb[49]
*287 la_oenb[4]
*288 la_oenb[50]
*289 la_oenb[51]
*290 la_oenb[52]
*291 la_oenb[53]
*292 la_oenb[54]
*293 la_oenb[55]
*294 la_oenb[56]
*295 la_oenb[57]
*296 la_oenb[58]
*297 la_oenb[59]
*298 la_oenb[5]
*299 la_oenb[60]
*300 la_oenb[61]
*301 la_oenb[62]
*302 la_oenb[63]
*303 la_oenb[6]
*304 la_oenb[7]
*305 la_oenb[8]
*306 la_oenb[9]
*307 user_clock2
*308 user_irq[0]
*309 user_irq[1]
*310 user_irq[2]
*313 wb_clk_i
*314 wb_rst_i
*315 wbs_ack_o
*316 wbs_adr_i[0]
*317 wbs_adr_i[10]
*318 wbs_adr_i[11]
*319 wbs_adr_i[12]
*320 wbs_adr_i[13]
*321 wbs_adr_i[14]
*322 wbs_adr_i[15]
*323 wbs_adr_i[16]
*324 wbs_adr_i[17]
*325 wbs_adr_i[18]
*326 wbs_adr_i[19]
*327 wbs_adr_i[1]
*328 wbs_adr_i[20]
*329 wbs_adr_i[21]
*330 wbs_adr_i[22]
*331 wbs_adr_i[23]
*332 wbs_adr_i[24]
*333 wbs_adr_i[25]
*334 wbs_adr_i[26]
*335 wbs_adr_i[27]
*336 wbs_adr_i[28]
*337 wbs_adr_i[29]
*338 wbs_adr_i[2]
*339 wbs_adr_i[30]
*340 wbs_adr_i[31]
*341 wbs_adr_i[3]
*342 wbs_adr_i[4]
*343 wbs_adr_i[5]
*344 wbs_adr_i[6]
*345 wbs_adr_i[7]
*346 wbs_adr_i[8]
*347 wbs_adr_i[9]
*348 wbs_cyc_i
*349 wbs_dat_i[0]
*350 wbs_dat_i[10]
*351 wbs_dat_i[11]
*352 wbs_dat_i[12]
*353 wbs_dat_i[13]
*354 wbs_dat_i[14]
*355 wbs_dat_i[15]
*356 wbs_dat_i[16]
*357 wbs_dat_i[17]
*358 wbs_dat_i[18]
*359 wbs_dat_i[19]
*360 wbs_dat_i[1]
*361 wbs_dat_i[20]
*362 wbs_dat_i[21]
*363 wbs_dat_i[22]
*364 wbs_dat_i[23]
*365 wbs_dat_i[24]
*366 wbs_dat_i[25]
*367 wbs_dat_i[26]
*368 wbs_dat_i[27]
*369 wbs_dat_i[28]
*370 wbs_dat_i[29]
*371 wbs_dat_i[2]
*372 wbs_dat_i[30]
*373 wbs_dat_i[31]
*374 wbs_dat_i[3]
*375 wbs_dat_i[4]
*376 wbs_dat_i[5]
*377 wbs_dat_i[6]
*378 wbs_dat_i[7]
*379 wbs_dat_i[8]
*380 wbs_dat_i[9]
*381 wbs_dat_o[0]
*382 wbs_dat_o[10]
*383 wbs_dat_o[11]
*384 wbs_dat_o[12]
*385 wbs_dat_o[13]
*386 wbs_dat_o[14]
*387 wbs_dat_o[15]
*388 wbs_dat_o[16]
*389 wbs_dat_o[17]
*390 wbs_dat_o[18]
*391 wbs_dat_o[19]
*392 wbs_dat_o[1]
*393 wbs_dat_o[20]
*394 wbs_dat_o[21]
*395 wbs_dat_o[22]
*396 wbs_dat_o[23]
*397 wbs_dat_o[24]
*398 wbs_dat_o[25]
*399 wbs_dat_o[26]
*400 wbs_dat_o[27]
*401 wbs_dat_o[28]
*402 wbs_dat_o[29]
*403 wbs_dat_o[2]
*404 wbs_dat_o[30]
*405 wbs_dat_o[31]
*406 wbs_dat_o[3]
*407 wbs_dat_o[4]
*408 wbs_dat_o[5]
*409 wbs_dat_o[6]
*410 wbs_dat_o[7]
*411 wbs_dat_o[8]
*412 wbs_dat_o[9]
*413 wbs_sel_i[0]
*414 wbs_sel_i[1]
*415 wbs_sel_i[2]
*416 wbs_sel_i[3]
*417 wbs_stb_i
*418 wbs_we_i
*419 mprj

*PORTS
io_in[0] I
io_in[10] I
io_in[11] I
io_in[12] I
io_in[13] I
io_in[14] I
io_in[15] I
io_in[16] I
io_in[17] I
io_in[18] I
io_in[19] I
io_in[1] I
io_in[20] I
io_in[21] I
io_in[22] I
io_in[23] I
io_in[24] I
io_in[25] I
io_in[26] I
io_in[27] I
io_in[28] I
io_in[29] I
io_in[2] I
io_in[30] I
io_in[31] I
io_in[32] I
io_in[33] I
io_in[34] I
io_in[35] I
io_in[36] I
io_in[37] I
io_in[3] I
io_in[4] I
io_in[5] I
io_in[6] I
io_in[7] I
io_in[8] I
io_in[9] I
io_oeb[0] O
io_oeb[10] O
io_oeb[11] O
io_oeb[12] O
io_oeb[13] O
io_oeb[14] O
io_oeb[15] O
io_oeb[16] O
io_oeb[17] O
io_oeb[18] O
io_oeb[19] O
io_oeb[1] O
io_oeb[20] O
io_oeb[21] O
io_oeb[22] O
io_oeb[23] O
io_oeb[24] O
io_oeb[25] O
io_oeb[26] O
io_oeb[27] O
io_oeb[28] O
io_oeb[29] O
io_oeb[2] O
io_oeb[30] O
io_oeb[31] O
io_oeb[32] O
io_oeb[33] O
io_oeb[34] O
io_oeb[35] O
io_oeb[36] O
io_oeb[37] O
io_oeb[3] O
io_oeb[4] O
io_oeb[5] O
io_oeb[6] O
io_oeb[7] O
io_oeb[8] O
io_oeb[9] O
io_out[0] O
io_out[10] O
io_out[11] O
io_out[12] O
io_out[13] O
io_out[14] O
io_out[15] O
io_out[16] O
io_out[17] O
io_out[18] O
io_out[19] O
io_out[1] O
io_out[20] O
io_out[21] O
io_out[22] O
io_out[23] O
io_out[24] O
io_out[25] O
io_out[26] O
io_out[27] O
io_out[28] O
io_out[29] O
io_out[2] O
io_out[30] O
io_out[31] O
io_out[32] O
io_out[33] O
io_out[34] O
io_out[35] O
io_out[36] O
io_out[37] O
io_out[3] O
io_out[4] O
io_out[5] O
io_out[6] O
io_out[7] O
io_out[8] O
io_out[9] O
la_data_in[0] I
la_data_in[10] I
la_data_in[11] I
la_data_in[12] I
la_data_in[13] I
la_data_in[14] I
la_data_in[15] I
la_data_in[16] I
la_data_in[17] I
la_data_in[18] I
la_data_in[19] I
la_data_in[1] I
la_data_in[20] I
la_data_in[21] I
la_data_in[22] I
la_data_in[23] I
la_data_in[24] I
la_data_in[25] I
la_data_in[26] I
la_data_in[27] I
la_data_in[28] I
la_data_in[29] I
la_data_in[2] I
la_data_in[30] I
la_data_in[31] I
la_data_in[32] I
la_data_in[33] I
la_data_in[34] I
la_data_in[35] I
la_data_in[36] I
la_data_in[37] I
la_data_in[38] I
la_data_in[39] I
la_data_in[3] I
la_data_in[40] I
la_data_in[41] I
la_data_in[42] I
la_data_in[43] I
la_data_in[44] I
la_data_in[45] I
la_data_in[46] I
la_data_in[47] I
la_data_in[48] I
la_data_in[49] I
la_data_in[4] I
la_data_in[50] I
la_data_in[51] I
la_data_in[52] I
la_data_in[53] I
la_data_in[54] I
la_data_in[55] I
la_data_in[56] I
la_data_in[57] I
la_data_in[58] I
la_data_in[59] I
la_data_in[5] I
la_data_in[60] I
la_data_in[61] I
la_data_in[62] I
la_data_in[63] I
la_data_in[6] I
la_data_in[7] I
la_data_in[8] I
la_data_in[9] I
la_data_out[0] O
la_data_out[10] O
la_data_out[11] O
la_data_out[12] O
la_data_out[13] O
la_data_out[14] O
la_data_out[15] O
la_data_out[16] O
la_data_out[17] O
la_data_out[18] O
la_data_out[19] O
la_data_out[1] O
la_data_out[20] O
la_data_out[21] O
la_data_out[22] O
la_data_out[23] O
la_data_out[24] O
la_data_out[25] O
la_data_out[26] O
la_data_out[27] O
la_data_out[28] O
la_data_out[29] O
la_data_out[2] O
la_data_out[30] O
la_data_out[31] O
la_data_out[32] O
la_data_out[33] O
la_data_out[34] O
la_data_out[35] O
la_data_out[36] O
la_data_out[37] O
la_data_out[38] O
la_data_out[39] O
la_data_out[3] O
la_data_out[40] O
la_data_out[41] O
la_data_out[42] O
la_data_out[43] O
la_data_out[44] O
la_data_out[45] O
la_data_out[46] O
la_data_out[47] O
la_data_out[48] O
la_data_out[49] O
la_data_out[4] O
la_data_out[50] O
la_data_out[51] O
la_data_out[52] O
la_data_out[53] O
la_data_out[54] O
la_data_out[55] O
la_data_out[56] O
la_data_out[57] O
la_data_out[58] O
la_data_out[59] O
la_data_out[5] O
la_data_out[60] O
la_data_out[61] O
la_data_out[62] O
la_data_out[63] O
la_data_out[6] O
la_data_out[7] O
la_data_out[8] O
la_data_out[9] O
la_oenb[0] I
la_oenb[10] I
la_oenb[11] I
la_oenb[12] I
la_oenb[13] I
la_oenb[14] I
la_oenb[15] I
la_oenb[16] I
la_oenb[17] I
la_oenb[18] I
la_oenb[19] I
la_oenb[1] I
la_oenb[20] I
la_oenb[21] I
la_oenb[22] I
la_oenb[23] I
la_oenb[24] I
la_oenb[25] I
la_oenb[26] I
la_oenb[27] I
la_oenb[28] I
la_oenb[29] I
la_oenb[2] I
la_oenb[30] I
la_oenb[31] I
la_oenb[32] I
la_oenb[33] I
la_oenb[34] I
la_oenb[35] I
la_oenb[36] I
la_oenb[37] I
la_oenb[38] I
la_oenb[39] I
la_oenb[3] I
la_oenb[40] I
la_oenb[41] I
la_oenb[42] I
la_oenb[43] I
la_oenb[44] I
la_oenb[45] I
la_oenb[46] I
la_oenb[47] I
la_oenb[48] I
la_oenb[49] I
la_oenb[4] I
la_oenb[50] I
la_oenb[51] I
la_oenb[52] I
la_oenb[53] I
la_oenb[54] I
la_oenb[55] I
la_oenb[56] I
la_oenb[57] I
la_oenb[58] I
la_oenb[59] I
la_oenb[5] I
la_oenb[60] I
la_oenb[61] I
la_oenb[62] I
la_oenb[63] I
la_oenb[6] I
la_oenb[7] I
la_oenb[8] I
la_oenb[9] I
user_clock2 I
user_irq[0] O
user_irq[1] O
user_irq[2] O
wb_clk_i I
wb_rst_i I
wbs_ack_o O
wbs_adr_i[0] I
wbs_adr_i[10] I
wbs_adr_i[11] I
wbs_adr_i[12] I
wbs_adr_i[13] I
wbs_adr_i[14] I
wbs_adr_i[15] I
wbs_adr_i[16] I
wbs_adr_i[17] I
wbs_adr_i[18] I
wbs_adr_i[19] I
wbs_adr_i[1] I
wbs_adr_i[20] I
wbs_adr_i[21] I
wbs_adr_i[22] I
wbs_adr_i[23] I
wbs_adr_i[24] I
wbs_adr_i[25] I
wbs_adr_i[26] I
wbs_adr_i[27] I
wbs_adr_i[28] I
wbs_adr_i[29] I
wbs_adr_i[2] I
wbs_adr_i[30] I
wbs_adr_i[31] I
wbs_adr_i[3] I
wbs_adr_i[4] I
wbs_adr_i[5] I
wbs_adr_i[6] I
wbs_adr_i[7] I
wbs_adr_i[8] I
wbs_adr_i[9] I
wbs_cyc_i I
wbs_dat_i[0] I
wbs_dat_i[10] I
wbs_dat_i[11] I
wbs_dat_i[12] I
wbs_dat_i[13] I
wbs_dat_i[14] I
wbs_dat_i[15] I
wbs_dat_i[16] I
wbs_dat_i[17] I
wbs_dat_i[18] I
wbs_dat_i[19] I
wbs_dat_i[1] I
wbs_dat_i[20] I
wbs_dat_i[21] I
wbs_dat_i[22] I
wbs_dat_i[23] I
wbs_dat_i[24] I
wbs_dat_i[25] I
wbs_dat_i[26] I
wbs_dat_i[27] I
wbs_dat_i[28] I
wbs_dat_i[29] I
wbs_dat_i[2] I
wbs_dat_i[30] I
wbs_dat_i[31] I
wbs_dat_i[3] I
wbs_dat_i[4] I
wbs_dat_i[5] I
wbs_dat_i[6] I
wbs_dat_i[7] I
wbs_dat_i[8] I
wbs_dat_i[9] I
wbs_dat_o[0] O
wbs_dat_o[10] O
wbs_dat_o[11] O
wbs_dat_o[12] O
wbs_dat_o[13] O
wbs_dat_o[14] O
wbs_dat_o[15] O
wbs_dat_o[16] O
wbs_dat_o[17] O
wbs_dat_o[18] O
wbs_dat_o[19] O
wbs_dat_o[1] O
wbs_dat_o[20] O
wbs_dat_o[21] O
wbs_dat_o[22] O
wbs_dat_o[23] O
wbs_dat_o[24] O
wbs_dat_o[25] O
wbs_dat_o[26] O
wbs_dat_o[27] O
wbs_dat_o[28] O
wbs_dat_o[29] O
wbs_dat_o[2] O
wbs_dat_o[30] O
wbs_dat_o[31] O
wbs_dat_o[3] O
wbs_dat_o[4] O
wbs_dat_o[5] O
wbs_dat_o[6] O
wbs_dat_o[7] O
wbs_dat_o[8] O
wbs_dat_o[9] O
wbs_sel_i[0] I
wbs_sel_i[1] I
wbs_sel_i[2] I
wbs_sel_i[3] I
wbs_stb_i I
wbs_we_i I

*D_NET *1 0.451571
*CONN
*P io_in[0] I
*I *419:io_in[0] I *D tiny_user_project
*CAP
1 io_in[0] 0.00265146
2 *419:io_in[0] 0.000264282
3 *1:14 0.00649213
4 *1:13 0.00622785
5 *1:11 0.0656803
6 *1:10 0.0683318
7 *419:io_in[0] *419:io_in[27] 2.81764e-05
8 *1:11 *77:18 0
9 *1:11 *115:8 0.106869
10 *1:11 *298:18 0.0161018
11 *1:14 *3:16 0.00193947
12 *1:14 *263:19 0.098508
13 *1:14 *368:11 0.0129068
14 *1:14 *400:15 0.0655698
*RES
1 io_in[0] *1:10 35.595 
2 *1:10 *1:11 766.17 
3 *1:11 *1:13 4.5 
4 *1:13 *1:14 288.45 
5 *1:14 *419:io_in[0] 16.02 
*END

*D_NET *2 0.275689
*CONN
*P io_in[10] I
*I *419:io_in[10] I *D tiny_user_project
*CAP
1 io_in[10] 0.0713746
2 *419:io_in[10] 0.000508342
3 *2:8 0.0181225
4 *2:7 0.0176141
5 *2:5 0.0713746
6 *419:io_in[10] *220:12 0.00178353
7 *2:8 *43:11 0.0686386
8 *2:8 *225:11 0.0168783
9 *2:8 *285:19 0.00362117
10 *2:8 *357:11 0.00577316
*RES
1 io_in[10] *2:5 777.825 
2 *2:5 *2:7 4.5 
3 *2:7 *2:8 332.01 
4 *2:8 *419:io_in[10] 21.24 
*END

*D_NET *3 0.345349
*CONN
*P io_in[11] I
*I *419:io_in[11] I *D tiny_user_project
*CAP
1 io_in[11] 0.000280649
2 *419:io_in[11] 0.000309572
3 *3:16 0.0341917
4 *3:15 0.0338822
5 *3:13 0.0708655
6 *3:11 0.0711462
7 *419:io_in[11] *419:io_in[14] 0
8 *419:io_in[11] *419:la_data_in[42] 0.000105889
9 *3:13 *11:18 0
10 *3:16 *419:la_data_in[27] 0
11 *3:16 *73:11 0.0134658
12 *3:16 *263:19 0.00265962
13 *3:16 *324:11 0.0280487
14 *3:16 *368:11 0.0869694
15 *3:16 *400:15 0.00148453
16 *1:14 *3:16 0.00193947
*RES
1 io_in[11] *3:11 2.655 
2 *3:11 *3:13 773.19 
3 *3:13 *3:15 4.5 
4 *3:15 *3:16 463.23 
5 *3:16 *419:io_in[11] 16.56 
*END

*D_NET *4 0.399981
*CONN
*P io_in[12] I
*I *419:io_in[12] I *D tiny_user_project
*CAP
1 io_in[12] 0.000215438
2 *419:io_in[12] 0.00142634
3 *4:16 0.0377408
4 *4:15 0.0363145
5 *4:13 0.0717815
6 *4:11 0.0719969
7 *4:16 *75:13 0.180506
*RES
1 io_in[12] *4:11 2.115 
2 *4:11 *4:13 782.91 
3 *4:13 *4:15 4.5 
4 *4:15 *4:16 477.99 
5 *4:16 *419:io_in[12] 27.09 
*END

*D_NET *5 0.3301
*CONN
*P io_in[13] I
*I *419:io_in[13] I *D tiny_user_project
*CAP
1 io_in[13] 0.000145659
2 *419:io_in[13] 0.00203302
3 *5:16 0.0538665
4 *5:15 0.0518335
5 *5:13 0.0722262
6 *5:11 0.0723719
7 *419:io_in[13] *419:la_data_in[32] 0.000187842
8 *5:16 *70:13 0.0350455
9 *5:16 *111:13 0.0128685
10 *5:16 *279:11 0.0295217
*RES
1 io_in[13] *5:11 1.575 
2 *5:11 *5:13 788.31 
3 *5:13 *5:15 4.5 
4 *5:15 *5:16 580.59 
5 *5:16 *419:io_in[13] 33.57 
*END

*D_NET *6 0.33188
*CONN
*P io_in[14] I
*I *419:io_in[14] I *D tiny_user_project
*CAP
1 io_in[14] 0.00397136
2 *419:io_in[14] 0.00228308
3 *6:12 0.0639544
4 *6:11 0.0616714
5 *6:9 0.0684986
6 *6:7 0.07247
7 *6:12 *247:11 0.0571408
8 *6:12 *394:13 0.00189037
9 *419:io_in[11] *419:io_in[14] 0
*RES
1 io_in[14] *6:7 43.425 
2 *6:7 *6:9 748.08 
3 *6:9 *6:11 4.5 
4 *6:11 *6:12 656.19 
5 *6:12 *419:io_in[14] 35.19 
*END

*D_NET *7 0.443237
*CONN
*P io_in[15] I
*I *419:io_in[15] I *D tiny_user_project
*CAP
1 io_in[15] 0.0022271
2 *419:io_in[15] 0.00365268
3 *7:14 0.0627585
4 *7:13 0.0591058
5 *7:11 0.041879
6 *7:10 0.044106
7 *419:io_in[15] *74:15 0
8 *7:11 *40:10 0.194009
9 *7:14 *89:17 0.035499
*RES
1 io_in[15] *7:10 32.715 
2 *7:10 *7:11 544.23 
3 *7:11 *7:13 4.5 
4 *7:13 *7:14 667.17 
5 *7:14 *419:io_in[15] 37.755 
*END

*D_NET *8 0.238671
*CONN
*P io_in[16] I
*I *419:io_in[16] I *D tiny_user_project
*CAP
1 io_in[16] 0.000164983
2 *419:io_in[16] 0.00126116
3 *8:19 0.0244305
4 *8:18 0.0231693
5 *8:16 0.0402388
6 *8:15 0.0402388
7 *8:13 0.0487977
8 *8:11 0.0489627
9 *419:io_in[16] *419:la_data_in[20] 0
10 *419:io_in[16] *127:14 0.00472491
11 *8:19 *91:10 0
12 *8:19 *254:11 0
13 *8:19 *325:11 0
14 *8:19 *358:19 0.00479344
15 *8:19 *372:31 0.00188858
*RES
1 io_in[16] *8:11 1.935 
2 *8:11 *8:13 487.17 
3 *8:13 *8:15 4.5 
4 *8:15 *8:16 438.93 
5 *8:16 *8:18 4.5 
6 *8:18 *8:19 252.45 
7 *8:19 *419:io_in[16] 18.855 
*END

*D_NET *9 0.184659
*CONN
*P io_in[17] I
*I *419:io_in[17] I *D tiny_user_project
*CAP
1 io_in[17] 0.000291323
2 *419:io_in[17] 7.76107e-05
3 *9:22 0.00460428
4 *9:19 0.0101392
5 *9:18 0.00561251
6 *9:16 0.0273229
7 *9:15 0.0273229
8 *9:13 0.0544985
9 *9:11 0.0547898
10 *9:19 *306:13 0
*RES
1 io_in[17] *9:11 3.015 
2 *9:11 *9:13 543.87 
3 *9:13 *9:15 4.5 
4 *9:15 *9:16 298.53 
5 *9:16 *9:18 4.5 
6 *9:18 *9:19 52.65 
7 *9:19 *9:22 49.95 
8 *9:22 *419:io_in[17] 0.765 
*END

*D_NET *10 0.173883
*CONN
*P io_in[18] I
*I *419:io_in[18] I *D tiny_user_project
*CAP
1 io_in[18] 0.0017601
2 *419:io_in[18] 0.00364196
3 *10:11 0.0573523
4 *10:10 0.0537103
5 *10:8 0.0278293
6 *10:7 0.0295894
*RES
1 io_in[18] *10:7 21.825 
2 *10:7 *10:8 303.21 
3 *10:8 *10:10 4.5 
4 *10:10 *10:11 536.04 
5 *10:11 *419:io_in[18] 33.075 
*END

*D_NET *11 0.261687
*CONN
*P io_in[19] I
*I *419:io_in[19] I *D tiny_user_project
*CAP
1 io_in[19] 0.000224243
2 *419:io_in[19] 0.000439161
3 *11:22 0.00364171
4 *11:21 0.00320255
5 *11:19 0.0537537
6 *11:18 0.0563748
7 *11:13 0.0276285
8 *11:11 0.0252317
9 *419:io_in[19] *153:11 0
10 *11:22 *42:8 0.00745984
11 *11:22 *44:8 0.0281585
12 *11:22 *79:8 0.0505369
13 *11:22 *290:14 0.00503531
14 *3:13 *11:18 0
*RES
1 io_in[19] *11:11 2.475 
2 *11:11 *11:13 249.57 
3 *11:13 *11:18 37.53 
4 *11:18 *11:19 531.09 
5 *11:19 *11:21 4.5 
6 *11:21 *11:22 105.57 
7 *11:22 *419:io_in[19] 8.325 
*END

*D_NET *12 0.809224
*CONN
*P io_in[1] I
*I *419:io_in[1] I *D tiny_user_project
*CAP
1 io_in[1] 0.000255153
2 *419:io_in[1] 0.000859314
3 *12:11 0.0266148
4 *12:10 0.0257555
5 *12:8 0.0172944
6 *12:7 0.0175496
7 *419:io_in[1] *419:la_data_in[16] 9.51324e-05
8 *12:8 *23:8 0.161111
9 *12:8 *40:10 0.051617
10 *12:11 *35:11 0
11 *12:11 *74:14 0.00491141
12 *12:11 *163:22 0.0292815
13 *12:11 *164:22 0.0152507
14 *12:11 *197:8 0.0311054
15 *12:11 *235:18 0.373205
16 *12:11 *282:18 0.0428955
17 *12:11 *385:12 0.0114223
*RES
1 io_in[1] *12:7 6.705 
2 *12:7 *12:8 310.95 
3 *12:8 *12:10 4.5 
4 *12:10 *12:11 744.75 
5 *12:11 *419:io_in[1] 12.195 
*END

*D_NET *13 0.13029
*CONN
*P io_in[20] I
*I *419:io_in[20] I *D tiny_user_project
*CAP
1 io_in[20] 0.00434787
2 *419:io_in[20] 0.00350046
3 *13:15 0.00933116
4 *13:14 0.0058307
5 *13:12 0.00606169
6 *13:11 0.00606169
7 *13:9 0.0453009
8 *13:7 0.0496488
9 *419:io_in[20] *419:wbs_dat_i[7] 0.000207143
10 *13:9 *76:10 0
*RES
1 io_in[20] *13:7 43.245 
2 *13:7 *13:9 452.34 
3 *13:9 *13:11 4.5 
4 *13:11 *13:12 64.89 
5 *13:12 *13:14 4.5 
6 *13:14 *13:15 58.14 
7 *13:15 *419:io_in[20] 32.535 
*END

*D_NET *14 0.363185
*CONN
*P io_in[21] I
*I *419:io_in[21] I *D tiny_user_project
*CAP
1 io_in[21] 0.000166444
2 *419:io_in[21] 0
3 *14:28 0.000716035
4 *14:27 0.000972531
5 *14:19 0.00568652
6 *14:18 0.00543002
7 *14:16 0.00450563
8 *14:15 0.00450563
9 *14:13 0.0567489
10 *14:11 0.0569153
11 *14:16 *174:16 0
12 *14:16 *223:12 0.019169
13 *14:19 *419:wbs_dat_i[8] 0.00193334
14 *14:19 *419:wbs_dat_i[9] 0.00123979
15 *14:19 *15:19 0.00266371
16 *14:19 *163:19 0.134842
17 *14:19 *179:15 0.0017331
18 *14:19 *399:21 0.000823458
19 *14:19 *405:8 0.0138556
20 *14:27 *179:21 0.00714953
21 *14:27 *386:17 0.00714953
22 *14:28 *109:5 0.00124339
23 *14:28 *113:5 0.0291576
24 *14:28 *328:16 0.00657755
*RES
1 io_in[21] *14:11 1.935 
2 *14:11 *14:13 565.47 
3 *14:13 *14:15 4.5 
4 *14:15 *14:16 83.25 
5 *14:16 *14:18 4.5 
6 *14:18 *14:19 209.97 
7 *14:19 *14:27 25.02 
8 *14:27 *14:28 47.61 
9 *14:28 *419:io_in[21] 4.5 
*END

*D_NET *15 0.157903
*CONN
*P io_in[22] I
*I *419:io_in[22] I *D tiny_user_project
*CAP
1 io_in[22] 0.000290594
2 *419:io_in[22] 4.54012e-05
3 *15:19 0.0246952
4 *15:18 0.0246498
5 *15:16 0.0176772
6 *15:15 0.0176772
7 *15:13 0.0333745
8 *15:11 0.0336651
9 *419:io_in[22] *231:8 0.000161641
10 *419:io_in[22] *307:16 0.000117863
11 *15:19 *419:wbs_dat_i[8] 0.00239365
12 *15:19 *179:15 0.000491006
13 *14:19 *15:19 0.00266371
*RES
1 io_in[22] *15:11 3.015 
2 *15:11 *15:13 333.27 
3 *15:13 *15:15 4.5 
4 *15:15 *15:16 191.79 
5 *15:16 *15:18 4.5 
6 *15:18 *15:19 251.73 
7 *15:19 *419:io_in[22] 10.17 
*END

*D_NET *16 0.187794
*CONN
*P io_in[23] I
*I *419:io_in[23] I *D tiny_user_project
*CAP
1 io_in[23] 0.000104982
2 *419:io_in[23] 0.000442942
3 *16:19 0.0101299
4 *16:18 0.00968699
5 *16:16 0.0282412
6 *16:15 0.0282412
7 *16:13 0.0506425
8 *16:11 0.0507475
9 *419:io_in[23] *419:wbs_dat_i[0] 0.000493083
10 *419:io_in[23] *266:22 0
11 *16:16 *36:13 0
12 *16:19 *30:16 0.00300741
13 *16:19 *328:25 0.00605574
*RES
1 io_in[23] *16:11 1.395 
2 *16:11 *16:13 506.07 
3 *16:13 *16:15 4.5 
4 *16:15 *16:16 302.49 
5 *16:16 *16:18 4.5 
6 *16:18 *16:19 104.85 
7 *16:19 *419:io_in[23] 10.845 
*END

*D_NET *17 0.427756
*CONN
*P io_in[24] I
*I *419:io_in[24] I *D tiny_user_project
*CAP
1 io_in[24] 0.00755506
2 *419:io_in[24] 0.00121191
3 *17:11 0.0135535
4 *17:10 0.0123416
5 *17:8 0.0777129
6 *17:7 0.0777129
7 *17:5 0.00755506
8 *419:io_in[24] *58:7 0.000210212
9 *419:io_in[24] *243:13 0
10 *17:8 *416:13 0
11 *17:11 *26:19 0.181224
12 *17:11 *83:14 0.048679
13 *17:11 *286:16 0
14 *17:11 *349:16 0
*RES
1 io_in[24] *17:5 81.765 
2 *17:5 *17:7 4.5 
3 *17:7 *17:8 775.35 
4 *17:8 *17:10 4.5 
5 *17:10 *17:11 270.45 
6 *17:11 *419:io_in[24] 16.245 
*END

*D_NET *18 0.222063
*CONN
*P io_in[25] I
*I *419:io_in[25] I *D tiny_user_project
*CAP
1 io_in[25] 0.000237175
2 *419:io_in[25] 8.40722e-05
3 *18:19 0.00430961
4 *18:18 0.00422554
5 *18:16 0.0696092
6 *18:15 0.0696092
7 *18:13 0.0073277
8 *18:11 0.00756488
9 *419:io_in[25] *250:17 0.000255732
10 *18:19 *34:11 0.0144853
11 *18:19 *62:8 0.013843
12 *18:19 *65:11 0.00435188
13 *18:19 *71:14 0.0210752
14 *18:19 *95:8 0.000746036
15 *18:19 *98:8 0.00415242
16 *18:19 *101:13 0.000186509
17 *18:19 *104:5 0
*RES
1 io_in[25] *18:11 2.295 
2 *18:11 *18:13 79.11 
3 *18:13 *18:15 4.5 
4 *18:15 *18:16 694.53 
5 *18:16 *18:18 4.5 
6 *18:18 *18:19 139.23 
7 *18:19 *419:io_in[25] 5.625 
*END

*D_NET *19 0.135396
*CONN
*P io_in[26] I
*I *419:io_in[26] I *D tiny_user_project
*CAP
1 io_in[26] 0.00010158
2 *419:io_in[26] 0.00166443
3 *19:16 0.044104
4 *19:15 0.0424395
5 *19:13 0.0155034
6 *19:11 0.015605
7 *419:io_in[26] *419:wbs_stb_i 4.56561e-05
8 *419:io_in[26] *351:21 6.33968e-05
9 *419:io_in[26] *417:22 0.0055331
10 *19:16 *90:13 0
11 *19:16 *112:13 0.0103364
*RES
1 io_in[26] *19:11 1.215 
2 *19:11 *19:13 168.21 
3 *19:13 *19:15 4.5 
4 *19:15 *19:16 466.83 
5 *19:16 *419:io_in[26] 39.87 
*END

*D_NET *20 0.130658
*CONN
*P io_in[27] I
*I *419:io_in[27] I *D tiny_user_project
*CAP
1 io_in[27] 0.000310538
2 *419:io_in[27] 0.000289102
3 *20:19 0.00692258
4 *20:18 0.00663347
5 *20:16 0.0427473
6 *20:15 0.0427473
7 *20:13 0.0114727
8 *20:11 0.0117833
9 *419:io_in[27] *419:la_data_in[33] 3.52204e-05
10 *20:19 *419:la_data_in[33] 0.00768828
11 *419:io_in[0] *419:io_in[27] 2.81764e-05
*RES
1 io_in[27] *20:11 2.835 
2 *20:11 *20:13 111.51 
3 *20:13 *20:15 4.5 
4 *20:15 *20:16 426.51 
5 *20:16 *20:18 4.5 
6 *20:18 *20:19 80.55 
7 *20:19 *419:io_in[27] 12.24 
*END

*D_NET *21 0.108525
*CONN
*P io_in[28] I
*I *419:io_in[28] I *D tiny_user_project
*CAP
1 io_in[28] 0.000167681
2 *419:io_in[28] 0.000266115
3 *21:19 0.00488451
4 *21:18 0.00461839
5 *21:16 0.0341446
6 *21:15 0.0341446
7 *21:13 0.0150657
8 *21:11 0.0152334
9 *21:16 *352:11 0
10 *21:16 *384:14 0
*RES
1 io_in[28] *21:11 1.755 
2 *21:11 *21:13 146.61 
3 *21:13 *21:15 4.5 
4 *21:15 *21:16 340.29 
5 *21:16 *21:18 4.5 
6 *21:18 *21:19 45.63 
7 *21:19 *419:io_in[28] 11.7 
*END

*D_NET *22 0.0993075
*CONN
*P io_in[29] I
*I *419:io_in[29] I *D tiny_user_project
*CAP
1 io_in[29] 0.0098517
2 *419:io_in[29] 0.000136197
3 *22:11 0.0086235
4 *22:10 0.0084873
5 *22:8 0.0303166
6 *22:7 0.0303166
7 *22:5 0.0098517
8 *419:io_in[29] *419:la_oenb[28] 0.000542656
9 *22:11 *419:la_oenb[28] 0.00118123
*RES
1 io_in[29] *22:5 106.065 
2 *22:5 *22:7 4.5 
3 *22:7 *22:8 302.31 
4 *22:8 *22:10 4.5 
5 *22:10 *22:11 86.13 
6 *22:11 *419:io_in[29] 10.98 
*END

*D_NET *23 0.308805
*CONN
*P io_in[2] I
*I *419:io_in[2] I *D tiny_user_project
*CAP
1 io_in[2] 0.000239227
2 *419:io_in[2] 0.000699192
3 *23:11 0.0527849
4 *23:10 0.0520857
5 *23:8 0.0131665
6 *23:7 0.0134057
7 *419:io_in[2] *419:io_in[3] 0.000479095
8 *419:io_in[2] *307:16 0
9 *23:11 io_oeb[5] 0.000783338
10 *23:11 *419:io_in[3] 0.0140504
11 *12:8 *23:8 0.161111
*RES
1 io_in[2] *23:7 6.525 
2 *23:7 *23:8 236.25 
3 *23:8 *23:10 4.5 
4 *23:10 *23:11 570.24 
5 *23:11 *419:io_in[2] 8.415 
*END

*D_NET *24 0.219991
*CONN
*P io_in[30] I
*I *419:io_in[30] I *D tiny_user_project
*CAP
1 io_in[30] 0.000237175
2 *419:io_in[30] 0.000511042
3 *24:19 0.0108708
4 *24:18 0.0103597
5 *24:16 0.0357435
6 *24:15 0.0357435
7 *24:13 0.0123787
8 *24:11 0.0126159
9 *419:io_in[30] *341:21 6.21429e-05
10 *419:io_in[30] *343:24 0.000225045
11 *24:19 *419:la_data_in[47] 0.000158533
12 *24:19 *419:la_data_in[6] 1.86509e-05
13 *24:19 *419:la_oenb[61] 8.08152e-05
14 *24:19 *419:wbs_adr_i[13] 0.000328722
15 *24:19 *419:wbs_adr_i[2] 0.000183401
16 *24:19 *419:wbs_dat_i[4] 0.000412651
17 *24:19 *58:8 0
18 *24:19 *83:13 0.0011877
19 *24:19 *106:13 0.000716247
20 *24:19 *269:24 8.39292e-05
21 *24:19 *363:12 0.0619721
22 *24:19 *374:16 0.0153953
23 *24:19 *383:10 0.000108797
24 *24:19 *390:10 0.0200775
25 *24:19 *397:10 0.000391657
26 *24:19 *398:10 8.39292e-05
27 *24:19 *401:10 4.35189e-05
*RES
1 io_in[30] *24:11 2.295 
2 *24:11 *24:13 133.11 
3 *24:13 *24:15 4.5 
4 *24:15 *24:16 355.41 
5 *24:16 *24:18 4.5 
6 *24:18 *24:19 185.67 
7 *24:19 *419:io_in[30] 9.405 
*END

*D_NET *25 0.0820397
*CONN
*P io_in[31] I
*I *419:io_in[31] I *D tiny_user_project
*CAP
1 io_in[31] 0.0039351
2 *419:io_in[31] 4.46606e-05
3 *25:19 0.0137508
4 *25:18 0.0137061
5 *25:16 0.020287
6 *25:15 0.0242221
7 *419:io_in[31] *419:la_oenb[39] 0.000187842
8 *25:19 *419:la_oenb[39] 0.00590612
*RES
1 io_in[31] *25:15 47.025 
2 *25:15 *25:16 202.41 
3 *25:16 *25:18 4.5 
4 *25:18 *25:19 150.93 
5 *25:19 *419:io_in[31] 9.81 
*END

*D_NET *26 0.285261
*CONN
*P io_in[32] I
*I *419:io_in[32] I *D tiny_user_project
*CAP
1 io_in[32] 0.000310538
2 *419:io_in[32] 0.00120657
3 *26:19 0.00928375
4 *26:18 0.00807718
5 *26:16 0.0226286
6 *26:15 0.0226286
7 *26:13 0.00836255
8 *26:11 0.00867309
9 *419:io_in[32] *190:20 0.000724234
10 *26:19 *83:14 0.000745999
11 *26:19 *333:16 1.39882e-05
12 *26:19 *358:16 0.0108253
13 *26:19 *394:16 0.0105563
14 *17:11 *26:19 0.181224
*RES
1 io_in[32] *26:11 2.835 
2 *26:11 *26:13 89.91 
3 *26:13 *26:15 4.5 
4 *26:15 *26:16 224.73 
5 *26:16 *26:18 4.5 
6 *26:18 *26:19 265.59 
7 *26:19 *419:io_in[32] 16.425 
*END

*D_NET *27 0.0641296
*CONN
*P io_in[33] I
*I *419:io_in[33] I *D tiny_user_project
*CAP
1 io_in[33] 0.000167681
2 *419:io_in[33] 0.000111217
3 *27:19 0.00927212
4 *27:18 0.0091609
5 *27:16 0.0127402
6 *27:15 0.0127402
7 *27:13 0.00979084
8 *27:11 0.00995852
9 *419:io_in[33] *321:27 0.000187842
10 *27:16 *344:13 0
*RES
1 io_in[33] *27:11 1.755 
2 *27:11 *27:13 103.41 
3 *27:13 *27:15 4.5 
4 *27:15 *27:16 126.99 
5 *27:16 *27:18 4.5 
6 *27:18 *27:19 88.83 
7 *27:19 *419:io_in[33] 10.62 
*END

*D_NET *28 0.0563418
*CONN
*P io_in[34] I
*I *419:io_in[34] I *D tiny_user_project
*CAP
1 io_in[34] 0.00269176
2 *419:io_in[34] 8.50677e-05
3 *28:11 0.0157223
4 *28:10 0.0156372
5 *28:8 0.00952083
6 *28:7 0.0122126
7 *419:io_in[34] *419:la_data_in[27] 8.2181e-05
8 *28:8 *348:13 0
9 *28:11 *419:la_data_in[27] 0.000389856
*RES
1 io_in[34] *28:7 32.265 
2 *28:7 *28:8 95.13 
3 *28:8 *28:10 4.5 
4 *28:10 *28:11 164.43 
5 *28:11 *419:io_in[34] 10.26 
*END

*D_NET *29 0.349484
*CONN
*P io_in[35] I
*I *419:io_in[35] I *D tiny_user_project
*CAP
1 io_in[35] 0.00166505
2 *419:io_in[35] 0.00109281
3 *29:11 0.008482
4 *29:10 0.0073892
5 *29:8 0.0190572
6 *29:7 0.0207223
7 *419:io_in[35] *419:la_data_in[9] 3.83598e-05
8 *419:io_in[35] *257:23 5.83015e-05
9 *29:11 *64:18 0.00787535
10 *29:11 *108:12 0.0110248
11 *29:11 *110:12 0.000186509
12 *29:11 *133:16 0.0240595
13 *29:11 *197:8 0.117811
14 *29:11 *378:12 0.11147
15 *29:11 *414:16 0.0185514
*RES
1 io_in[35] *29:7 21.465 
2 *29:7 *29:8 190.35 
3 *29:8 *29:10 4.5 
4 *29:10 *29:11 346.77 
5 *29:11 *419:io_in[35] 23.578 
*END

*D_NET *30 0.353098
*CONN
*P io_in[36] I
*I *419:io_in[36] I *D tiny_user_project
*CAP